*  -------------------------------------- *
*  Filename: scl18fs120_supply_pins.cdl
*  Total subcircuits:  540
*  -------------------------------------- *
* Defining the default unit for both length and area
*.SCALE meter
*  -------------------------------------- *

.SUBCKT ad01d0 CO S  A B CI VDD VSS
MM28 VDD CI 7 VDD P l=0.191475u w=1.83u 
MM17 VDD A 7 VDD P l=0.18u w=1.37u 
MM27 13 CI 4 VDD P l=0.186301u w=1.314u 
MM26 13 B VDD VDD P l=0.18u w=1.26u 
MM25 VDD B 7 VDD P l=0.18u w=1.14u 
MM22 6 4 7 VDD P l=0.188502u w=1.235u 
MM20 6 CI 18 VDD P l=0.18u w=1.44u 
MM23 VDD B 17 VDD P l=0.18u w=1.44u 
MM21 17 A 18 VDD P l=0.18u w=1.44u 
MM19 19 A 4 VDD P l=0.18u w=1.24u 
MM24 VDD B 19 VDD P l=0.18u w=1.24u 
MM18 13 A VDD VDD P l=0.185865u w=1.33u 
MM16 VDD 4 CO VDD P l=0.18u w=0.85u 
MM15 S 6 VDD VDD P l=0.18u w=0.85u 
MM13 12 CI 4 VSS N l=0.186935u w=1.194u 
MM9 VSS B 12 VSS N l=0.18u w=1.23u 
MM14 9 CI VSS VSS N l=0.187312u w=1.198u 
MM8 6 4 9 VSS N l=0.185738u w=1.192u 
MM6 6 CI 15 VSS N l=0.18u w=1.12u 
MM12 VSS B 14 VSS N l=0.186935u w=1.194u 
MM7 14 A 15 VSS N l=0.18u w=1.12u 
MM5 4 A 16 VSS N l=0.18u w=1.12u 
MM10 VSS B 16 VSS N l=0.18u w=1.12u 
MM4 VSS A 12 VSS N l=0.186u w=1.3u 
MM11 9 B VSS VSS N l=0.186935u w=1.194u 
MM3 9 A VSS VSS N l=0.18u w=1.12u 
MM2 VSS 4 CO VSS N l=0.18u w=0.57u 
MM1 S 6 VSS VSS N l=0.18u w=0.57u 
.ENDS ad01d0

.SUBCKT ad01d1 CO S  A B CI VDD VSS
MM28 VDD CI 7 VDD P l=0.191475u w=1.83u 
MM17 VDD A 7 VDD P l=0.18u w=1.37u 
MM27 13 CI 4 VDD P l=0.186301u w=1.314u 
MM26 13 B VDD VDD P l=0.18u w=1.26u 
MM25 VDD B 7 VDD P l=0.18u w=1.14u 
MM22 6 4 7 VDD P l=0.188502u w=1.235u 
MM20 6 CI 18 VDD P l=0.18u w=1.44u 
MM23 VDD B 17 VDD P l=0.18u w=1.44u 
MM21 17 A 18 VDD P l=0.18u w=1.44u 
MM19 19 A 4 VDD P l=0.18u w=1.24u 
MM24 VDD B 19 VDD P l=0.18u w=1.24u 
MM18 13 A VDD VDD P l=0.185865u w=1.33u 
MM16 VDD 4 CO VDD P l=0.185099u w=1.624u 
MM15 VDD 6 S VDD P l=0.18u w=1.55u 
MM13 12 CI 4 VSS N l=0.186935u w=1.194u 
MM9 VSS B 12 VSS N l=0.18u w=1.23u 
MM14 9 CI VSS VSS N l=0.187312u w=1.198u 
MM8 6 4 9 VSS N l=0.185738u w=1.192u 
MM6 6 CI 15 VSS N l=0.18u w=1.12u 
MM12 VSS B 14 VSS N l=0.186935u w=1.194u 
MM7 14 A 15 VSS N l=0.18u w=1.12u 
MM5 4 A 16 VSS N l=0.18u w=1.12u 
MM10 VSS B 16 VSS N l=0.18u w=1.12u 
MM4 VSS A 12 VSS N l=0.186u w=1.3u 
MM11 9 B VSS VSS N l=0.186935u w=1.194u 
MM3 9 A VSS VSS N l=0.18u w=1.12u 
MM2 CO 4 VSS VSS N l=0.187569u w=1.094u 
MM1 VSS 6 S VSS N l=0.18u w=1.02u 
.ENDS ad01d1

.SUBCKT ad01d2 CO S  A B CI VDD VSS
MM32 13 B VDD VDD P l=0.18u w=1.26u 
MM17 13 CI 3 VDD P l=0.186301u w=1.314u 
MM29 VDD B 17 VDD P l=0.18u w=1.24u 
MM21 17 A 3 VDD P l=0.18u w=1.24u 
MM20 13 A VDD VDD P l=0.185865u w=1.33u 
MM30 VDD B 7 VDD P l=0.18u w=1.14u 
MM28 7 3 6 VDD P l=0.189575u w=1.247u 
MM19 VDD A 7 VDD P l=0.18u w=1.37u 
MM18 VDD CI 7 VDD P l=0.190759u w=1.818u 
MM31 VDD B 18 VDD P l=0.18u w=1.44u 
MM27 18 A 19 VDD P l=0.18u w=1.44u 
MM26 19 CI 6 VDD P l=0.18u w=1.44u 
MM23 VDD 6 S VDD P l=0.184436u w=1.542u 
MM22 VDD 6 S VDD P l=0.185328u w=1.554u 
MM25 VDD 3 CO VDD P l=0.185032u w=1.55u 
MM24 VDD 3 CO VDD P l=0.18u w=1.48u 
MM13 VSS B 12 VSS N l=0.18u w=1.2u 
MM1 12 CI 3 VSS N l=0.187113u w=1.164u 
MM14 VSS B 14 VSS N l=0.18u w=1.09u 
MM5 3 A 14 VSS N l=0.18u w=1.09u 
MM4 VSS A 12 VSS N l=0.186499u w=1.274u 
MM15 9 B VSS VSS N l=0.187113u w=1.164u 
MM3 9 A VSS VSS N l=0.18u w=1.09u 
MM12 6 3 9 VSS N l=0.185937u w=1.152u 
MM2 9 CI VSS VSS N l=0.187113u w=1.164u 
MM16 VSS B 15 VSS N l=0.189652u w=1.237u 
MM11 15 A 16 VSS N l=0.18u w=1.09u 
MM10 6 CI 16 VSS N l=0.18u w=1.09u 
MM7 VSS 6 S VSS N l=0.186998u w=1.046u 
MM6 VSS 6 S VSS N l=0.18u w=0.98u 
MM9 VSS 3 CO VSS N l=0.186693u w=1.022u 
MM8 VSS 3 CO VSS N l=0.18u w=0.96u 
.ENDS ad01d2

.SUBCKT adiode   I VDD VSS
D1      VSS   I DN  462.4000F 2.7200U
D2      I   VDD DP  462.4000F 2.7200U
.ENDS adiode

.SUBCKT adp1d0 CO P S  A B CI VDD VSS
MM38 24 2 6 VDD P l=0.18u w=1.54u 
MM36 6 A 23 VDD P l=0.18427u w=1.602u 
MM37 VDD B 23 VDD P l=0.18513u w=1.614u 
MM35 24 5 VDD VDD P l=0.18u w=1.54u 
MM34 P 6 VDD VDD P l=0.18u w=1.54u 
MM29 CO 9 VDD VDD P l=0.18u w=0.56u 
MM33 14 B VDD VDD P l=0.186301u w=1.314u 
MM31 9 7 14 VDD P l=0.18u w=1.24u 
MM30 9 CI 14 VDD P l=0.186301u w=1.314u 
MM32 VDD A 14 VDD P l=0.18u w=1.24u 
MM28 VDD B 5 VDD P l=0.18u w=0.55u 
MM27 VDD A 2 VDD P l=0.18u w=0.55u 
MM25 25 7 11 VDD P l=0.18u w=1.54u 
MM22 11 6 26 VDD P l=0.185398u w=1.534u 
MM24 S 11 VDD VDD P l=0.184845u w=1.61u 
MM23 25 CI VDD VDD P l=0.18u w=1.54u 
MM26 VDD 10 26 VDD P l=0.185398u w=1.534u 
MM21 VDD 6 7 VDD P l=0.18u w=0.58u 
MM20 10 CI VDD VDD P l=0.18u w=0.63u 
MM19 17 2 6 VSS N l=0.18u w=0.81u 
MM18 VSS B 17 VSS N l=0.18u w=0.81u 
MM17 5 B VSS VSS N l=0.18u w=0.48u 
MM16 18 A VSS VSS N l=0.18u w=0.81u 
MM15 18 5 6 VSS N l=0.18u w=0.81u 
MM14 VSS 6 P VSS N l=0.18u w=1.54u 
MM12 2 A VSS VSS N l=0.18u w=0.42u 
MM13 19 B VSS VSS N l=0.18u w=0.88u 
MM11 9 A 19 VSS N l=0.18u w=0.88u 
MM10 20 7 9 VSS N l=0.18u w=0.88u 
MM9 20 CI VSS VSS N l=0.18u w=0.88u 
MM8 CO 9 VSS VSS N l=0.18u w=0.46u 
MM7 10 CI VSS VSS N l=0.18u w=0.48u 
MM6 21 10 VSS VSS N l=0.18u w=0.74u 
MM5 21 7 11 VSS N l=0.18u w=0.74u 
MM4 S 11 VSS VSS N l=0.187222u w=1.08u 
MM2 7 6 VSS VSS N l=0.18u w=0.5u 
MM1 11 6 22 VSS N l=0.18u w=0.74u 
MM3 22 CI VSS VSS N l=0.18u w=0.74u 
.ENDS adp1d0

.SUBCKT adp1d1 CO P S  A B CI VDD VSS
MM38 24 2 6 VDD P l=0.18u w=1.54u 
MM36 6 A 23 VDD P l=0.18427u w=1.602u 
MM37 VDD B 23 VDD P l=0.18513u w=1.614u 
MM35 24 5 VDD VDD P l=0.18u w=1.54u 
MM34 P 6 VDD VDD P l=0.18u w=1.54u 
MM33 14 B VDD VDD P l=0.186254u w=1.324u 
MM31 9 7 14 VDD P l=0.18u w=1.17u 
MM32 VDD A 14 VDD P l=0.18u w=1.17u 
MM30 9 CI 14 VDD P l=0.186656u w=1.244u 
MM29 CO 9 VDD VDD P l=0.185562u w=1.316u 
MM28 VDD B 5 VDD P l=0.18u w=0.55u 
MM27 VDD A 2 VDD P l=0.18u w=0.55u 
MM25 25 7 11 VDD P l=0.18u w=1.54u 
MM22 11 6 26 VDD P l=0.185398u w=1.534u 
MM24 S 11 VDD VDD P l=0.184845u w=1.61u 
MM23 25 CI VDD VDD P l=0.18u w=1.54u 
MM26 VDD 10 26 VDD P l=0.185398u w=1.534u 
MM21 VDD 6 7 VDD P l=0.18u w=0.58u 
MM20 10 CI VDD VDD P l=0.18u w=0.65u 
MM19 17 2 6 VSS N l=0.18u w=0.81u 
MM18 VSS B 17 VSS N l=0.18u w=0.81u 
MM17 5 B VSS VSS N l=0.18u w=0.48u 
MM16 18 A VSS VSS N l=0.18u w=0.81u 
MM15 18 5 6 VSS N l=0.18u w=0.81u 
MM14 VSS 6 P VSS N l=0.18u w=1.54u 
MM12 2 A VSS VSS N l=0.18u w=0.42u 
MM13 19 B VSS VSS N l=0.18u w=0.88u 
MM11 9 A 19 VSS N l=0.18u w=0.88u 
MM10 20 7 9 VSS N l=0.18u w=0.88u 
MM9 20 CI VSS VSS N l=0.18u w=0.88u 
MM8 CO 9 VSS VSS N l=0.185978u w=1.626u 
MM7 10 CI VSS VSS N l=0.18u w=0.48u 
MM6 21 10 VSS VSS N l=0.18u w=0.74u 
MM5 21 7 11 VSS N l=0.18u w=0.74u 
MM4 S 11 VSS VSS N l=0.187222u w=1.08u 
MM2 7 6 VSS VSS N l=0.18u w=0.5u 
MM1 11 6 22 VSS N l=0.18u w=0.74u 
MM3 22 CI VSS VSS N l=0.18u w=0.74u 
.ENDS adp1d1

.SUBCKT adp1d2 CO P S  A B CI VDD VSS
MM40 24 2 6 VDD P l=0.18u w=1.54u 
MM38 6 A 23 VDD P l=0.18427u w=1.602u 
MM39 VDD B 23 VDD P l=0.18513u w=1.614u 
MM37 24 5 VDD VDD P l=0.18u w=1.54u 
MM36 P 6 VDD VDD P l=0.18u w=1.54u 
MM35 VDD B 5 VDD P l=0.18u w=0.55u 
MM34 VDD A 2 VDD P l=0.18u w=0.55u 
MM33 14 B VDD VDD P l=0.186254u w=1.324u 
MM31 9 7 14 VDD P l=0.18u w=1.17u 
MM32 VDD A 14 VDD P l=0.18u w=1.17u 
MM30 9 CI 14 VDD P l=0.186656u w=1.244u 
MM29 CO 9 VDD VDD P l=0.186449u w=1.284u 
MM28 CO 9 VDD VDD P l=0.18u w=1.21u 
MM26 25 7 11 VDD P l=0.18u w=1.54u 
MM23 11 6 26 VDD P l=0.185398u w=1.534u 
MM25 S 11 VDD VDD P l=0.184845u w=1.61u 
MM24 25 CI VDD VDD P l=0.18u w=1.54u 
MM27 VDD 10 26 VDD P l=0.185398u w=1.534u 
MM22 VDD 6 7 VDD P l=0.18u w=0.58u 
MM21 10 CI VDD VDD P l=0.18u w=0.65u 
MM20 17 2 6 VSS N l=0.18u w=0.81u 
MM19 VSS B 17 VSS N l=0.18u w=0.81u 
MM18 5 B VSS VSS N l=0.18u w=0.48u 
MM17 18 A VSS VSS N l=0.18u w=0.81u 
MM16 6 5 18 VSS N l=0.18u w=0.81u 
MM15 VSS 6 P VSS N l=0.18u w=1.54u 
MM13 2 A VSS VSS N l=0.18u w=0.45u 
MM14 19 B VSS VSS N l=0.18u w=0.91u 
MM12 9 A 19 VSS N l=0.18u w=0.91u 
MM11 20 7 9 VSS N l=0.18u w=0.91u 
MM10 20 CI VSS VSS N l=0.18u w=0.91u 
MM9 CO 9 VSS VSS N l=0.188196u w=1.186u 
MM8 CO 9 VSS VSS N l=0.18u w=1.1u 
MM7 10 CI VSS VSS N l=0.18u w=0.48u 
MM6 21 10 VSS VSS N l=0.18u w=0.74u 
MM5 21 7 11 VSS N l=0.18u w=0.74u 
MM4 S 11 VSS VSS N l=0.187222u w=1.08u 
MM2 7 6 VSS VSS N l=0.18u w=0.5u 
MM1 22 6 11 VSS N l=0.18u w=0.74u 
MM3 22 CI VSS VSS N l=0.18u w=0.74u 
.ENDS adp1d2

.SUBCKT ah01d0 CO S  A B VDD VSS
MM14 VDD 2 5 VDD P l=0.18u w=0.57u 
MM13 5 A 11 VDD P l=0.18u w=1.14u 
MM12 VDD B 11 VDD P l=0.18u w=1.14u 
MM11 VDD 2 CO VDD P l=0.18u w=0.72u 
MM10 VDD 5 S VDD P l=0.18u w=0.72u 
MM9 VDD A 2 VDD P l=0.18u w=0.57u 
MM8 VDD B 2 VDD P l=0.18u w=0.57u 
MM7 2 A 10 VSS N l=0.18u w=0.82u 
MM6 9 A VSS VSS N l=0.18u w=0.57u 
MM5 5 2 9 VSS N l=0.18u w=0.72u 
MM3 9 B VSS VSS N l=0.18u w=0.82u 
MM4 VSS B 10 VSS N l=0.18u w=0.82u 
MM2 CO 2 VSS VSS N l=0.18u w=0.5u 
MM1 S 5 VSS VSS N l=0.18u w=0.5u 
.ENDS ah01d0

.SUBCKT ah01d1 CO S  A B VDD VSS
MM14 VDD 2 5 VDD P l=0.18u w=0.57u 
MM13 5 A 11 VDD P l=0.18u w=1.14u 
MM12 VDD B 11 VDD P l=0.18u w=1.14u 
MM11 CO 2 VDD VDD P l=0.184584u w=1.492u 
MM10 S 5 VDD VDD P l=0.1852u w=1.5u 
MM9 VDD A 2 VDD P l=0.18u w=0.57u 
MM8 VDD B 2 VDD P l=0.18u w=0.57u 
MM7 5 2 9 VSS N l=0.18u w=0.72u 
MM5 9 A VSS VSS N l=0.18u w=0.57u 
MM3 VSS B 9 VSS N l=0.18u w=0.82u 
MM6 2 A 10 VSS N l=0.18u w=0.82u 
MM4 VSS B 10 VSS N l=0.18u w=0.82u 
MM2 CO 2 VSS VSS N l=0.18u w=0.95u 
MM1 S 5 VSS VSS N l=0.18u w=0.95u 
.ENDS ah01d1

.SUBCKT ah01d2 CO S  A B VDD VSS
MM18 VDD 2 5 VDD P l=0.18u w=0.57u 
MM17 11 A 5 VDD P l=0.18u w=1.14u 
MM16 VDD B 11 VDD P l=0.18u w=1.14u 
MM15 CO 2 VDD VDD P l=0.185505u w=1.504u 
MM14 CO 2 VDD VDD P l=0.18u w=1.43u 
MM13 VDD 5 S VDD P l=0.1852u w=1.5u 
MM12 S 5 VDD VDD P l=0.18u w=1.43u 
MM11 VDD A 2 VDD P l=0.18u w=0.57u 
MM10 VDD B 2 VDD P l=0.18u w=0.57u 
MM9 9 2 5 VSS N l=0.18u w=0.72u 
MM7 9 A VSS VSS N l=0.18u w=0.57u 
MM5 9 B VSS VSS N l=0.18u w=0.82u 
MM8 2 A 10 VSS N l=0.18u w=0.82u 
MM6 VSS B 10 VSS N l=0.18u w=0.82u 
MM4 VSS 2 CO VSS N l=0.18u w=0.95u 
MM3 VSS 2 CO VSS N l=0.18u w=0.95u 
MM2 VSS 5 S VSS N l=0.18u w=0.95u 
MM1 VSS 5 S VSS N l=0.18u w=0.95u 
.ENDS ah01d2

.SUBCKT an02d0 Z  A1 A2 VDD VSS
MM5 VDD 3 Z VDD P l=0.18u w=0.74u 
MM6 VDD A2 3 VDD P l=0.18u w=0.88u 
MM4 VDD A1 3 VDD P l=0.18u w=0.88u 
MM2 VSS 3 Z VSS N l=0.18u w=0.5u 
MM3 7 A2 VSS VSS N l=0.18u w=0.88u 
MM1 7 A1 3 VSS N l=0.18u w=0.88u 
.ENDS an02d0

.SUBCKT an02d1 Z  A1 A2 VDD VSS
MM5 VDD 3 Z VDD P l=0.18u w=1.48u 
MM6 VDD A2 3 VDD P l=0.18u w=0.88u 
MM4 VDD A1 3 VDD P l=0.18u w=0.88u 
MM2 Z 3 VSS VSS N l=0.18u w=1u 
MM3 7 A2 VSS VSS N l=0.18u w=0.88u 
MM1 7 A1 3 VSS N l=0.18u w=0.88u 
.ENDS an02d1

.SUBCKT an02d2 Z  A1 A2 VDD VSS
MM8 VDD 2 Z VDD P l=0.184937u w=1.58u 
MM7 VDD 2 Z VDD P l=0.18u w=1.51u 
MM6 VDD A2 2 VDD P l=0.18u w=0.7u 
MM5 VDD A1 2 VDD P l=0.18u w=0.7u 
MM4 Z 2 VSS VSS N l=0.187864u w=1.236u 
MM3 Z 2 VSS VSS N l=0.18u w=1.15u 
MM2 VSS A2 7 VSS N l=0.18u w=0.7u 
MM1 7 A1 2 VSS N l=0.18u w=0.7u 
.ENDS an02d2

.SUBCKT an02d4 Z  A1 A2 VDD VSS
MM10 VDD 2 Z VDD P l=0.184012u w=2.064u 
MM9 VDD 2 Z VDD P l=0.18u w=1.99u 
MM8 VDD 2 Z VDD P l=0.184012u w=2.064u 
MM7 2 A2 VDD VDD P l=0.18u w=1.4u 
MM6 2 A1 VDD VDD P l=0.184993u w=1.466u 
MM5 VSS 2 Z VSS N l=0.186454u w=1.506u 
MM4 VSS 2 Z VSS N l=0.186152u w=1.502u 
MM3 VSS 2 Z VSS N l=0.18u w=1.42u 
MM2 VSS A2 7 VSS N l=0.18u w=0.7u 
MM1 7 A1 2 VSS N l=0.18u w=0.7u 
.ENDS an02d4

.SUBCKT an03d0 Z  A1 A2 A3 VDD VSS
MM7 VDD 3 Z VDD P l=0.18u w=0.7u 
MM8 3 A3 VDD VDD P l=0.18u w=0.78u 
MM6 3 A2 VDD VDD P l=0.18u w=0.78u 
MM5 3 A1 VDD VDD P l=0.18u w=0.78u 
MM3 VSS 3 Z VSS N l=0.18u w=0.62u 
MM4 VSS A3 8 VSS N l=0.18u w=0.8u 
MM2 8 A2 9 VSS N l=0.18u w=0.8u 
MM1 3 A1 9 VSS N l=0.18u w=0.8u 
.ENDS an03d0

.SUBCKT an03d1 Z  A1 A2 A3 VDD VSS
MM7 VDD 3 Z VDD P l=0.185417u w=1.44u 
MM8 3 A3 VDD VDD P l=0.18u w=0.78u 
MM6 3 A2 VDD VDD P l=0.18u w=0.78u 
MM5 3 A1 VDD VDD P l=0.18u w=0.78u 
MM3 VSS 3 Z VSS N l=0.18542u w=1.262u 
MM4 VSS A3 8 VSS N l=0.18u w=0.8u 
MM2 8 A2 9 VSS N l=0.18u w=0.8u 
MM1 3 A1 9 VSS N l=0.18u w=0.8u 
.ENDS an03d1

.SUBCKT an03d2 Z  A1 A2 A3 VDD VSS
MM7 3 A1 VDD VDD P l=0.18u w=0.78u 
MM9 VDD 3 Z VDD P l=0.185417u w=1.44u 
MM8 Z 3 VDD VDD P l=0.18u w=1.37u 
MM10 3 A3 VDD VDD P l=0.18u w=0.78u 
MM6 3 A2 VDD VDD P l=0.18u w=0.78u 
MM4 VSS 3 Z VSS N l=0.186142u w=1.27u 
MM3 VSS 3 Z VSS N l=0.18u w=1.2u 
MM2 3 A1 9 VSS N l=0.18u w=0.8u 
MM5 VSS A3 8 VSS N l=0.18u w=0.8u 
MM1 8 A2 9 VSS N l=0.18u w=0.8u 
.ENDS an03d2

.SUBCKT an03d4 Z  A1 A2 A3 VDD VSS
MM12 VDD 2 Z VDD P l=0.183786u w=2.06u 
MM11 Z 2 VDD VDD P l=0.18u w=1.99u 
MM10 Z 2 VDD VDD P l=0.183786u w=2.06u 
MM9 VDD A3 2 VDD P l=0.18u w=1.51u 
MM8 VDD A2 2 VDD P l=0.18u w=1.51u 
MM7 VDD A1 2 VDD P l=0.18u w=1.51u 
MM6 VSS 2 Z VSS N l=0.185067u w=1.634u 
MM5 VSS 2 Z VSS N l=0.18u w=1.56u 
MM4 VSS 2 Z VSS N l=0.18u w=1.56u 
MM3 8 A3 VSS VSS N l=0.18u w=1.16u 
MM2 9 A2 8 VSS N l=0.18u w=1.16u 
MM1 9 A1 2 VSS N l=0.18u w=1.16u 
.ENDS an03d4

.SUBCKT an04d0 Z  A1 A2 A3 A4 VDD VSS
MM10 VDD 2 Z VDD P l=0.18u w=0.63u 
MM9 VDD A4 2 VDD P l=0.18u w=0.87u 
MM8 VDD A3 2 VDD P l=0.18u w=0.87u 
MM7 VDD A2 2 VDD P l=0.18u w=0.87u 
MM6 VDD A1 2 VDD P l=0.18u w=0.87u 
MM5 VSS 2 Z VSS N l=0.18u w=0.5u 
MM4 9 A4 VSS VSS N l=0.18u w=0.9u 
MM3 9 A3 10 VSS N l=0.18u w=0.9u 
MM2 11 A2 10 VSS N l=0.18u w=0.9u 
MM1 2 A1 11 VSS N l=0.18u w=0.9u 
.ENDS an04d0

.SUBCKT an04d1 Z  A1 A2 A3 A4 VDD VSS
MM9 Z 3 VDD VDD P l=0.18u w=1.26u 
MM10 VDD A4 3 VDD P l=0.18u w=0.87u 
MM8 VDD A3 3 VDD P l=0.18u w=0.87u 
MM7 VDD A2 3 VDD P l=0.18u w=0.87u 
MM6 VDD A1 3 VDD P l=0.18u w=0.87u 
MM4 Z 3 VSS VSS N l=0.18u w=1u 
MM5 VSS A4 9 VSS N l=0.18u w=0.9u 
MM3 10 A3 9 VSS N l=0.18u w=0.9u 
MM2 10 A2 11 VSS N l=0.18u w=0.9u 
MM1 3 A1 11 VSS N l=0.18u w=0.9u 
.ENDS an04d1

.SUBCKT an04d2 Z  A1 A2 A3 A4 VDD VSS
MM11 Z 3 VDD VDD P l=0.18u w=1.26u 
MM10 Z 3 VDD VDD P l=0.18u w=1.26u 
MM12 VDD A4 3 VDD P l=0.18u w=0.87u 
MM9 VDD A3 3 VDD P l=0.18u w=0.87u 
MM8 VDD A2 3 VDD P l=0.18u w=0.87u 
MM7 VDD A1 3 VDD P l=0.18u w=0.87u 
MM5 Z 3 VSS VSS N l=0.18u w=1u 
MM4 VSS 3 Z VSS N l=0.18u w=1u 
MM6 VSS A4 9 VSS N l=0.18u w=0.9u 
MM3 10 A3 9 VSS N l=0.18u w=0.9u 
MM2 10 A2 11 VSS N l=0.18u w=0.9u 
MM1 3 A1 11 VSS N l=0.18u w=0.9u 
.ENDS an04d2

.SUBCKT an04d4 Z  A1 A2 A3 A4 VDD VSS
MM13 Z 3 VDD VDD P l=0.184457u w=1.75u 
MM12 VDD 3 Z VDD P l=0.184721u w=1.754u 
MM11 VDD 3 Z VDD P l=0.18u w=1.68u 
MM14 VDD A4 3 VDD P l=0.18u w=1.4u 
MM10 3 A3 VDD VDD P l=0.18u w=1.4u 
MM9 3 A2 VDD VDD P l=0.18u w=1.4u 
MM8 3 A1 VDD VDD P l=0.18u w=1.4u 
MM6 Z 3 VSS VSS N l=0.185856u w=1.414u 
MM5 Z 3 VSS VSS N l=0.18u w=1.34u 
MM4 Z 3 VSS VSS N l=0.18u w=1.34u 
MM7 VSS A4 9 VSS N l=0.18u w=1.17u 
MM3 10 A3 9 VSS N l=0.18u w=1.17u 
MM2 11 A2 10 VSS N l=0.18u w=1.17u 
MM1 11 A1 3 VSS N l=0.18u w=1.17u 
.ENDS an04d4

.SUBCKT an12d1 Z  A1 A2 VDD VSS
MM7 Z 3 VDD VDD P l=0.184937u w=1.58u 
MM6 5 A1 VDD VDD P l=0.18u w=0.62u 
MM8 VDD A2 3 VDD P l=0.18u w=0.87u 
MM5 VDD 5 3 VDD P l=0.18u w=0.87u 
MM3 Z 3 VSS VSS N l=0.185738u w=1.192u 
MM4 8 A2 VSS VSS N l=0.18u w=0.9u 
MM2 8 5 3 VSS N l=0.18u w=0.9u 
MM1 5 A1 VSS VSS N l=0.18u w=0.48u 
.ENDS an12d1

.SUBCKT an12d2 Z  A1 A2 VDD VSS
MM9 VDD 3 Z VDD P l=0.184937u w=1.58u 
MM8 Z 3 VDD VDD P l=0.18u w=1.51u 
MM7 5 A1 VDD VDD P l=0.18u w=0.62u 
MM10 VDD A2 3 VDD P l=0.18u w=0.87u 
MM6 VDD 5 3 VDD P l=0.18u w=0.87u 
MM4 VSS 3 Z VSS N l=0.185738u w=1.192u 
MM3 VSS 3 Z VSS N l=0.18u w=1.13u 
MM5 8 A2 VSS VSS N l=0.18u w=0.9u 
MM2 8 5 3 VSS N l=0.18u w=0.9u 
MM1 5 A1 VSS VSS N l=0.18u w=0.48u 
.ENDS an12d2

.SUBCKT an12d4 Z  A1 A2 VDD VSS
MM12 Z 2 VDD VDD P l=0.183786u w=2.06u 
MM11 Z 2 VDD VDD P l=0.18u w=1.99u 
MM10 Z 2 VDD VDD P l=0.183786u w=2.06u 
MM9 5 A1 VDD VDD P l=0.18u w=0.78u 
MM8 VDD A2 2 VDD P l=0.18u w=1.41u 
MM7 VDD 5 2 VDD P l=0.18u w=1.41u 
MM6 VSS 2 Z VSS N l=0.185342u w=1.46u 
MM5 VSS 2 Z VSS N l=0.184711u w=1.452u 
MM4 VSS 2 Z VSS N l=0.18u w=1.39u 
MM3 8 A2 VSS VSS N l=0.18u w=1.16u 
MM2 8 5 2 VSS N l=0.18u w=1.16u 
MM1 5 A1 VSS VSS N l=0.18u w=0.48u 
.ENDS an12d4

.SUBCKT aoi211d1 ZN  A B C1 C2 VDD VSS
MM8 10 B 7 VDD P l=0.184766u w=1.536u 
MM7 7 C1 VDD VDD P l=0.186096u w=1.122u 
MM6 7 C2 VDD VDD P l=0.186903u w=1.13u 
MM5 10 A ZN VDD P l=0.184766u w=1.536u 
MM4 VSS B ZN VSS N l=0.188163u w=1.132u 
MM3 9 C1 ZN VSS N l=0.18u w=1.05u 
MM2 VSS C2 9 VSS N l=0.188163u w=1.132u 
MM1 VSS A ZN VSS N l=0.18u w=0.99u 
.ENDS aoi211d1

.SUBCKT aoi211d2 ZN  A B C1 C2 VDD VSS
MM14 6 A 12 VDD P l=0.18u w=1.47u 
MM13 10 B 12 VDD P l=0.18u w=1.47u 
MM12 VDD C1 10 VDD P l=0.186096u w=1.122u 
MM11 10 C2 VDD VDD P l=0.186903u w=1.13u 
MM10 7 6 VDD VDD P l=0.185787u w=1.182u 
MM9 ZN 7 VDD VDD P l=0.184043u w=1.692u 
MM8 ZN 7 VDD VDD P l=0.18u w=1.63u 
MM7 6 A VSS VSS N l=0.18u w=0.99u 
MM6 6 B VSS VSS N l=0.188782u w=1.141u 
MM5 11 C1 6 VSS N l=0.18u w=1.05u 
MM4 11 C2 VSS VSS N l=0.188163u w=1.132u 
MM3 VSS 6 7 VSS N l=0.18u w=0.84u 
MM2 VSS 7 ZN VSS N l=0.188585u w=1.279u 
MM1 VSS 7 ZN VSS N l=0.18u w=1.18u 
.ENDS aoi211d2

.SUBCKT aoi211d4 ZN  A B C1 C2 VDD VSS
MM16 3 2 VDD VDD P l=0.18u w=1.66u 
MM15 VDD 3 ZN VDD P l=0.183786u w=2.06u 
MM14 ZN 3 VDD VDD P l=0.184012u w=2.064u 
MM13 ZN 3 VDD VDD P l=0.18u w=1.99u 
MM12 2 A 12 VDD P l=0.18u w=1.47u 
MM11 12 B 10 VDD P l=0.18u w=1.47u 
MM10 VDD C1 10 VDD P l=0.186096u w=1.122u 
MM9 10 C2 VDD VDD P l=0.186903u w=1.13u 
MM8 3 2 VSS VSS N l=0.18u w=1.16u 
MM6 VSS 3 ZN VSS N l=0.184643u w=1.68u 
MM7 ZN 3 VSS VSS N l=0.184917u w=1.684u 
MM5 ZN 3 VSS VSS N l=0.18u w=1.61u 
MM4 2 A VSS VSS N l=0.185922u w=1.236u 
MM3 2 B VSS VSS N l=0.18u w=1.05u 
MM2 11 C1 2 VSS N l=0.18u w=1.05u 
MM1 11 C2 VSS VSS N l=0.186964u w=1.12u 
.ENDS aoi211d4

.SUBCKT aoi21d1 ZN  A B1 B2 VDD VSS
MM5 5 B2 VDD VDD P l=0.18624u w=1.25u 
MM6 5 B1 VDD VDD P l=0.185507u w=1.242u 
MM4 ZN A 5 VDD P l=0.18u w=1.18u 
MM3 ZN B1 8 VSS N l=0.18u w=1.05u 
MM2 VSS B2 8 VSS N l=0.188163u w=1.132u 
MM1 ZN A VSS VSS N l=0.188556u w=1.136u 
.ENDS aoi21d1

.SUBCKT aoi21d2 ZN  A B1 B2 VDD VSS
MM12 3 2 VDD VDD P l=0.185507u w=1.242u 
MM11 ZN 3 VDD VDD P l=0.183838u w=1.782u 
MM10 VDD 3 ZN VDD P l=0.183838u w=1.782u 
MM9 2 A 9 VDD P l=0.18u w=1.18u 
MM8 VDD B1 9 VDD P l=0.185507u w=1.242u 
MM7 VDD B2 9 VDD P l=0.18624u w=1.25u 
MM6 VSS A 2 VSS N l=0.188632u w=1.126u 
MM5 2 B1 10 VSS N l=0.18u w=1.04u 
MM4 VSS B2 10 VSS N l=0.188632u w=1.126u 
MM3 VSS 2 3 VSS N l=0.18u w=0.88u 
MM2 VSS 3 ZN VSS N l=0.187386u w=1.316u 
MM1 ZN 3 VSS VSS N l=0.18u w=1.23u 
.ENDS aoi21d2

.SUBCKT aoi21d4 ZN  A B1 B2 VDD VSS
MM14 VDD 2 3 VDD P l=0.18u w=0.89u 
MM13 ZN 3 VDD VDD P l=0.183786u w=2.06u 
MM12 VDD 3 ZN VDD P l=0.184012u w=2.064u 
MM11 VDD 3 ZN VDD P l=0.18u w=1.99u 
MM10 9 B1 VDD VDD P l=0.18u w=1.14u 
MM8 9 A 2 VDD P l=0.18u w=0.82u 
MM9 9 B2 VDD VDD P l=0.186446u w=1.21u 
MM7 3 2 VSS VSS N l=0.18u w=0.42u 
MM5 ZN 3 VSS VSS N l=0.184643u w=1.68u 
MM6 ZN 3 VSS VSS N l=0.184917u w=1.684u 
MM4 ZN 3 VSS VSS N l=0.18u w=1.61u 
MM3 2 B1 10 VSS N l=0.18u w=1.17u 
MM1 2 A VSS VSS N l=0.18u w=0.43u 
MM2 VSS B2 10 VSS N l=0.18629u w=1.24u 
.ENDS aoi21d4

.SUBCKT aoi221d1 ZN  A B1 B2 C1 C2 VDD VSS
MM7 8 B1 9 VDD P l=0.18u w=1.38u 
MM10 VDD C2 8 VDD P l=0.184815u w=1.62u 
MM9 8 C1 VDD VDD P l=0.18u w=1.55u 
MM8 8 B2 9 VDD P l=0.185132u w=1.52u 
MM6 ZN A 9 VDD P l=0.186541u w=1.486u 
MM5 ZN C2 11 VSS N l=0.18u w=0.98u 
MM4 11 C1 VSS VSS N l=0.18u w=0.98u 
MM3 12 B2 VSS VSS N l=0.18u w=0.98u 
MM2 12 B1 ZN VSS N l=0.18u w=1u 
MM1 ZN A VSS VSS N l=0.18u w=1u 
.ENDS aoi221d1

.SUBCKT aoi221d2 ZN  A B1 B2 C1 C2 VDD VSS
MM16 9 C1 VDD VDD P l=0.184019u w=1.702u 
MM14 9 B2 12 VDD P l=0.18u w=1.55u 
MM15 VDD C2 9 VDD P l=0.184019u w=1.702u 
MM13 9 B1 12 VDD P l=0.184815u w=1.62u 
MM12 7 6 VDD VDD P l=0.184286u w=1.82u 
MM11 ZN 7 VDD VDD P l=0.184286u w=1.82u 
MM10 ZN 7 VDD VDD P l=0.18u w=1.75u 
MM9 12 A 6 VDD P l=0.186419u w=1.561u 
MM8 13 C1 6 VSS N l=0.18u w=0.98u 
MM7 7 6 VSS VSS N l=0.187952u w=1.66u 
MM6 VSS 7 ZN VSS N l=0.188221u w=1.664u 
MM5 ZN 7 VSS VSS N l=0.18u w=1.54u 
MM4 13 C2 VSS VSS N l=0.18u w=0.98u 
MM3 VSS A 6 VSS N l=0.189091u w=1.155u 
MM1 14 B1 6 VSS N l=0.18u w=1.06u 
MM2 VSS B2 14 VSS N l=0.18u w=1.06u 
.ENDS aoi221d2

.SUBCKT aoi221d4 ZN  A B1 B2 C1 C2 VDD VSS
MM20 VDD C2 9 VDD P l=0.18u w=1.64u 
MM19 VDD C1 9 VDD P l=0.184831u w=1.714u 
MM18 9 B2 12 VDD P l=0.18u w=1.55u 
MM17 9 B1 12 VDD P l=0.184815u w=1.62u 
MM16 7 6 VDD VDD P l=0.184286u w=1.82u 
MM14 ZN 7 VDD VDD P l=0.18u w=1.52u 
MM13 ZN 7 VDD VDD P l=0.185482u w=1.598u 
MM15 ZN 7 VDD VDD P l=0.184324u w=1.582u 
MM12 VDD 7 ZN VDD P l=0.18u w=1.75u 
MM11 12 A 6 VDD P l=0.185065u w=1.54u 
MM9 7 6 VSS VSS N l=0.188354u w=1.58u 
MM7 VSS 7 ZN VSS N l=0.184797u w=1.526u 
MM6 VSS 7 ZN VSS N l=0.18u w=1.46u 
MM8 VSS 7 ZN VSS N l=0.185098u w=1.53u 
MM5 ZN 7 VSS VSS N l=0.18u w=1.46u 
MM10 13 C2 VSS VSS N l=0.18u w=0.98u 
MM4 13 C1 6 VSS N l=0.18u w=0.98u 
MM3 VSS A 6 VSS N l=0.189091u w=1.155u 
MM1 14 B1 6 VSS N l=0.18u w=1.06u 
MM2 VSS B2 14 VSS N l=0.18u w=1.06u 
.ENDS aoi221d4

.SUBCKT aoi2222d1 ZN  A1 A2 B1 B2 C1 C2 D1 D2 VDD VSS
MM22 4 2 VDD VDD P l=0.18u w=1.09u 
MM21 VDD 3 4 VDD P l=0.185937u w=1.152u 
MM20 ZN 4 VDD VDD P l=0.184173u w=1.984u 
MM19 3 C2 14 VDD P l=0.185532u w=1.41u 
MM18 3 C1 14 VDD P l=0.18u w=1.34u 
MM17 VDD D1 14 VDD P l=0.184432u w=1.76u 
MM16 VDD D2 14 VDD P l=0.18u w=1.69u 
MM15 16 B2 VDD VDD P l=0.18u w=1.72u 
MM14 16 B1 VDD VDD P l=0.184358u w=1.79u 
MM13 16 A1 2 VDD P l=0.18u w=1.42u 
MM12 16 A2 2 VDD P l=0.185235u w=1.49u 
MM10 17 3 4 VSS N l=0.18u w=1.17u 
MM11 17 2 VSS VSS N l=0.18u w=1.17u 
MM9 ZN 4 VSS VSS N l=0.18u w=1.19u 
MM8 18 C2 VSS VSS N l=0.18u w=0.72u 
MM7 18 C1 3 VSS N l=0.18u w=0.72u 
MM6 3 D1 19 VSS N l=0.18u w=0.87u 
MM5 VSS D2 19 VSS N l=0.18u w=0.87u 
MM4 20 B2 VSS VSS N l=0.18u w=1u 
MM3 20 B1 2 VSS N l=0.186867u w=1.066u 
MM2 2 A1 21 VSS N l=0.18u w=0.72u 
MM1 VSS A2 21 VSS N l=0.18u w=0.72u 
.ENDS aoi2222d1

.SUBCKT aoi2222d2 ZN  A1 A2 B1 B2 C1 C2 D1 D2 VDD VSS
MM24 VDD 2 4 VDD P l=0.18u w=1.09u 
MM23 4 3 VDD VDD P l=0.185937u w=1.152u 
MM22 VDD 4 ZN VDD P l=0.184173u w=1.984u 
MM21 VDD 4 ZN VDD P l=0.18u w=1.91u 
MM20 14 C2 3 VDD P l=0.185532u w=1.41u 
MM19 14 C1 3 VDD P l=0.18u w=1.34u 
MM18 14 D1 VDD VDD P l=0.184432u w=1.76u 
MM17 14 D2 VDD VDD P l=0.18u w=1.69u 
MM16 16 B2 VDD VDD P l=0.18u w=1.72u 
MM15 16 B1 VDD VDD P l=0.184358u w=1.79u 
MM14 16 A1 2 VDD P l=0.18u w=1.42u 
MM13 16 A2 2 VDD P l=0.185235u w=1.49u 
MM11 17 3 4 VSS N l=0.18u w=1.17u 
MM12 VSS 2 17 VSS N l=0.18u w=1.17u 
MM10 VSS 4 ZN VSS N l=0.18u w=1.19u 
MM9 VSS 4 ZN VSS N l=0.18u w=1.19u 
MM8 18 C2 VSS VSS N l=0.18u w=0.72u 
MM7 3 C1 18 VSS N l=0.18u w=0.72u 
MM6 3 D1 19 VSS N l=0.18u w=0.87u 
MM5 19 D2 VSS VSS N l=0.18u w=0.87u 
MM4 20 B2 VSS VSS N l=0.18u w=1u 
MM3 20 B1 2 VSS N l=0.186867u w=1.066u 
MM2 2 A1 21 VSS N l=0.18u w=0.72u 
MM1 VSS A2 21 VSS N l=0.18u w=0.72u 
.ENDS aoi2222d2

.SUBCKT aoi2222d4 ZN  A1 A2 B1 B2 C1 C2 D1 D2 VDD VSS
MM27 VDD 3 ZN VDD P l=0.184173u w=1.984u 
MM26 VDD 3 ZN VDD P l=0.18u w=1.91u 
MM25 VDD 3 ZN VDD P l=0.18u w=1.91u 
MM24 ZN 3 VDD VDD P l=0.184173u w=1.984u 
MM28 3 2 VDD VDD P l=0.18u w=1.09u 
MM23 VDD 4 3 VDD P l=0.185937u w=1.152u 
MM22 15 C2 4 VDD P l=0.185532u w=1.41u 
MM21 15 C1 4 VDD P l=0.18u w=1.34u 
MM20 VDD D1 15 VDD P l=0.184432u w=1.76u 
MM19 15 D2 VDD VDD P l=0.18u w=1.69u 
MM18 16 B2 VDD VDD P l=0.18u w=1.72u 
MM17 16 B1 VDD VDD P l=0.184358u w=1.79u 
MM16 16 A1 2 VDD P l=0.18u w=1.42u 
MM15 16 A2 2 VDD P l=0.185235u w=1.49u 
MM13 ZN 3 VSS VSS N l=0.187264u w=1.272u 
MM11 ZN 3 VSS VSS N l=0.18u w=1.19u 
MM12 VSS 3 ZN VSS N l=0.186551u w=1.264u 
MM10 ZN 3 VSS VSS N l=0.18u w=1.19u 
MM9 17 4 3 VSS N l=0.18u w=1.17u 
MM14 17 2 VSS VSS N l=0.18u w=1.17u 
MM8 18 C2 VSS VSS N l=0.18u w=0.72u 
MM7 18 C1 4 VSS N l=0.18u w=0.72u 
MM6 4 D1 19 VSS N l=0.18u w=0.87u 
MM5 VSS D2 19 VSS N l=0.18u w=0.87u 
MM4 20 B2 VSS VSS N l=0.18u w=1u 
MM3 20 B1 2 VSS N l=0.186867u w=1.066u 
MM2 2 A1 21 VSS N l=0.18u w=0.72u 
MM1 VSS A2 21 VSS N l=0.18u w=0.72u 
.ENDS aoi2222d4

.SUBCKT aoi222d1 ZN  A1 A2 B1 B2 C1 C2 VDD VSS
MM12 9 B2 10 VDD P l=0.18513u w=1.614u 
MM11 ZN A2 10 VDD P l=0.18u w=1.43u 
MM9 9 B1 10 VDD P l=0.18u w=1.54u 
MM10 ZN A1 10 VDD P l=0.1852u w=1.5u 
MM8 VDD C2 9 VDD P l=0.184043u w=1.692u 
MM7 VDD C1 9 VDD P l=0.187543u w=1.75u 
MM5 ZN C2 12 VSS N l=0.18u w=1.13u 
MM4 12 C1 VSS VSS N l=0.18u w=1.13u 
MM3 ZN A2 13 VSS N l=0.18u w=1.13u 
MM2 VSS A1 13 VSS N l=0.18u w=1.13u 
MM6 14 B2 VSS VSS N l=0.18u w=1.13u 
MM1 ZN B1 14 VSS N l=0.18u w=1.13u 
.ENDS aoi222d1

.SUBCKT aoi222d2 ZN  A1 A2 B1 B2 C1 C2 VDD VSS
MM18 10 C1 VDD VDD P l=0.18u w=1.71u 
MM16 10 B2 13 VDD P l=0.18513u w=1.614u 
MM17 10 C2 VDD VDD P l=0.184641u w=1.784u 
MM15 13 B1 10 VDD P l=0.18u w=1.54u 
MM14 7 6 VDD VDD P l=0.184483u w=1.74u 
MM13 VDD 7 ZN VDD P l=0.184483u w=1.74u 
MM12 VDD 7 ZN VDD P l=0.18u w=1.67u 
MM11 13 A1 6 VDD P l=0.18u w=1.48u 
MM10 13 A2 6 VDD P l=0.185032u w=1.55u 
MM9 14 C1 6 VSS N l=0.18u w=1.1u 
MM8 14 C2 VSS VSS N l=0.18u w=1.1u 
MM7 7 6 VSS VSS N l=0.18u w=1.54u 
MM6 VSS 7 ZN VSS N l=0.18u w=1.54u 
MM5 ZN 7 VSS VSS N l=0.18u w=1.54u 
MM4 6 A1 15 VSS N l=0.18u w=0.98u 
MM3 VSS A2 15 VSS N l=0.18u w=0.98u 
MM2 16 B2 VSS VSS N l=0.18u w=0.98u 
MM1 16 B1 6 VSS N l=0.18u w=0.98u 
.ENDS aoi222d2

.SUBCKT aoi222d4 ZN  A1 A2 B1 B2 C1 C2 VDD VSS
MM20 10 C2 VDD VDD P l=0.184641u w=1.784u 
MM19 10 C1 VDD VDD P l=0.18u w=1.71u 
MM18 10 B2 13 VDD P l=0.18513u w=1.614u 
MM17 13 B1 10 VDD P l=0.18u w=1.54u 
MM16 7 6 VDD VDD P l=0.184671u w=1.67u 
MM14 ZN 7 VDD VDD P l=0.183786u w=2.06u 
MM15 ZN 7 VDD VDD P l=0.183786u w=2.06u 
MM13 ZN 7 VDD VDD P l=0.18u w=1.99u 
MM12 13 A1 6 VDD P l=0.18u w=1.48u 
MM11 13 A2 6 VDD P l=0.185032u w=1.55u 
MM9 VSS 7 ZN VSS N l=0.18u w=1.61u 
MM8 VSS 7 ZN VSS N l=0.18u w=1.61u 
MM7 ZN 7 VSS VSS N l=0.18u w=1.61u 
MM10 14 C2 VSS VSS N l=0.18u w=1.1u 
MM6 14 C1 6 VSS N l=0.18u w=1.1u 
MM5 VSS 6 7 VSS N l=0.185417u w=1.44u 
MM4 6 A1 15 VSS N l=0.18u w=0.98u 
MM3 VSS A2 15 VSS N l=0.18u w=0.98u 
MM2 16 B2 VSS VSS N l=0.18u w=0.98u 
MM1 16 B1 6 VSS N l=0.18u w=0.98u 
.ENDS aoi222d4

.SUBCKT aoi22d1 ZN  A1 A2 B1 B2 VDD VSS
MM8 7 B2 VDD VDD P l=0.185132u w=1.52u 
MM7 7 B1 VDD VDD P l=0.184524u w=1.512u 
MM6 ZN A1 7 VDD P l=0.18u w=1.45u 
MM5 ZN A2 7 VDD P l=0.186796u w=1.545u 
MM4 9 B2 VSS VSS N l=0.188632u w=1.126u 
MM3 ZN B1 9 VSS N l=0.18u w=1.04u 
MM2 10 A1 ZN VSS N l=0.18u w=1.04u 
MM1 VSS A2 10 VSS N l=0.18u w=1.04u 
.ENDS aoi22d1

.SUBCKT aoi22d2 ZN  A1 A2 B1 B2 VDD VSS
MM14 8 A2 6 VDD P l=0.186796u w=1.545u 
MM13 6 A1 8 VDD P l=0.18u w=1.45u 
MM12 VDD B1 8 VDD P l=0.184524u w=1.512u 
MM11 VDD B2 8 VDD P l=0.185132u w=1.52u 
MM10 VDD 6 7 VDD P l=0.18u w=1.1u 
MM9 ZN 7 VDD VDD P l=0.183838u w=1.782u 
MM8 ZN 7 VDD VDD P l=0.183838u w=1.782u 
MM6 11 A1 6 VSS N l=0.18u w=1.04u 
MM5 6 B1 12 VSS N l=0.18u w=1.04u 
MM7 11 A2 VSS VSS N l=0.18u w=1.04u 
MM4 VSS B2 12 VSS N l=0.188632u w=1.126u 
MM3 VSS 6 7 VSS N l=0.18u w=0.88u 
MM2 VSS 7 ZN VSS N l=0.187013u w=1.386u 
MM1 VSS 7 ZN VSS N l=0.18u w=1.3u 
.ENDS aoi22d2

.SUBCKT aoi22d4 ZN  A1 A2 B1 B2 VDD VSS
MM16 VDD 2 3 VDD P l=0.18u w=1.45u 
MM15 VDD 3 ZN VDD P l=0.183786u w=2.06u 
MM14 ZN 3 VDD VDD P l=0.184459u w=2.072u 
MM13 ZN 3 VDD VDD P l=0.18u w=1.99u 
MM12 10 A2 2 VDD P l=0.186796u w=1.545u 
MM11 2 A1 10 VDD P l=0.18u w=1.45u 
MM10 VDD B1 10 VDD P l=0.184524u w=1.512u 
MM9 VDD B2 10 VDD P l=0.185132u w=1.52u 
MM8 3 2 VSS VSS N l=0.18u w=1.19u 
MM6 VSS 3 ZN VSS N l=0.184643u w=1.68u 
MM7 ZN 3 VSS VSS N l=0.185461u w=1.692u 
MM5 ZN 3 VSS VSS N l=0.18u w=1.61u 
MM3 11 A1 2 VSS N l=0.18u w=1.04u 
MM2 2 B1 12 VSS N l=0.18u w=1.04u 
MM4 11 A2 VSS VSS N l=0.18u w=1.04u 
MM1 VSS B2 12 VSS N l=0.188632u w=1.126u 
.ENDS aoi22d4

.SUBCKT aoi311d1 ZN  A B C1 C2 C3 VDD VSS
MM10 8 C1 VDD VDD P l=0.18u w=1.67u 
MM7 8 B 12 VDD P l=0.185235u w=1.49u 
MM9 VDD C3 8 VDD P l=0.184483u w=1.74u 
MM8 8 C2 VDD VDD P l=0.18u w=1.67u 
MM6 ZN A 12 VDD P l=0.185235u w=1.49u 
MM5 ZN C1 10 VSS N l=0.18u w=1.26u 
MM3 10 C2 11 VSS N l=0.185865u w=1.33u 
MM4 VSS C3 11 VSS N l=0.185865u w=1.33u 
MM2 VSS B ZN VSS N l=0.185865u w=1.33u 
MM1 VSS A ZN VSS N l=0.18u w=1.07u 
.ENDS aoi311d1

.SUBCKT aoi311d2 ZN  A B C1 C2 C3 VDD VSS
MM15 11 B 14 VDD P l=0.18u w=1.43u 
MM14 7 A 14 VDD P l=0.1852u w=1.5u 
MM16 VDD C3 11 VDD P l=0.18u w=1.63u 
MM13 VDD C2 11 VDD P l=0.184859u w=1.704u 
MM12 VDD C1 11 VDD P l=0.18u w=1.63u 
MM11 VDD 7 8 VDD P l=0.186096u w=1.122u 
MM10 ZN 8 VDD VDD P l=0.184216u w=1.85u 
MM9 VDD 8 ZN VDD P l=0.18u w=1.78u 
MM6 VSS A 7 VSS N l=0.18u w=0.98u 
MM8 VSS C3 12 VSS N l=0.18u w=1.04u 
MM5 13 C2 12 VSS N l=0.18u w=1.04u 
MM7 VSS B 7 VSS N l=0.187027u w=1.11u 
MM4 7 C1 13 VSS N l=0.18u w=1.04u 
MM3 8 7 VSS VSS N l=0.186446u w=1.21u 
MM2 VSS 8 ZN VSS N l=0.1852u w=1.5u 
MM1 ZN 8 VSS VSS N l=0.18u w=1.33u 
.ENDS aoi311d2

.SUBCKT aoi311d4 ZN  A B C1 C2 C3 VDD VSS
MM17 11 B 14 VDD P l=0.18u w=1.43u 
MM16 7 A 14 VDD P l=0.1852u w=1.5u 
MM18 VDD C3 11 VDD P l=0.18u w=1.63u 
MM15 11 C2 VDD VDD P l=0.184043u w=1.692u 
MM14 11 C1 VDD VDD P l=0.18u w=1.63u 
MM13 VDD 7 8 VDD P l=0.186096u w=1.122u 
MM12 ZN 8 VDD VDD P l=0.184236u w=2.068u 
MM11 VDD 8 ZN VDD P l=0.18u w=1.99u 
MM10 ZN 8 VDD VDD P l=0.18u w=1.99u 
MM7 VSS A 7 VSS N l=0.18u w=0.98u 
MM9 VSS C3 12 VSS N l=0.18u w=1.04u 
MM6 13 C2 12 VSS N l=0.18u w=1.04u 
MM8 VSS B 7 VSS N l=0.187027u w=1.11u 
MM5 7 C1 13 VSS N l=0.18u w=1.04u 
MM4 8 7 VSS VSS N l=0.186446u w=1.21u 
MM3 VSS 8 ZN VSS N l=0.18u w=1.41u 
MM2 VSS 8 ZN VSS N l=0.18527u w=1.48u 
MM1 ZN 8 VSS VSS N l=0.18u w=1.33u 
.ENDS aoi311d4

.SUBCKT aoi31d1 ZN  A B1 B2 B3 VDD VSS
MM8 6 B3 VDD VDD P l=0.18u w=1.15u 
MM7 6 B2 VDD VDD P l=0.185644u w=1.212u 
MM6 6 B1 VDD VDD P l=0.185644u w=1.212u 
MM5 ZN A 6 VDD P l=0.18u w=1.15u 
MM4 9 B3 VSS VSS N l=0.18u w=1.05u 
MM3 10 B2 9 VSS N l=0.18u w=1.05u 
MM2 10 B1 ZN VSS N l=0.18u w=1.05u 
MM1 ZN A VSS VSS N l=0.188163u w=1.132u 
.ENDS aoi31d1

.SUBCKT aoi31d2 ZN  A B1 B2 B3 VDD VSS
MM13 VDD 3 4 VDD P l=0.18u w=1.09u 
MM12 VDD 4 ZN VDD P l=0.185414u w=1.618u 